/*--------------------------------*- C++ -*----------------------------------*\
| =========                 |                                                 |
| \\      /  F ield         | OpenFOAM: The Open Source CFD Toolbox           |
|  \\    /   O peration     | Version:  plus                                  |
|   \\  /    A nd           | Web:      www.OpenFOAM.com                      |
|    \\/     M anipulation  |                                                 |
\*---------------------------------------------------------------------------*/
FoamFile
{
    version     2.0;
    format      ascii;
    class       volScalarField;
    location    "0";
    object      omega;
}
// * * * * * * * * * * * * * * * * * * * * * * * * * * * * * * * * * * * * * //

dimensions      [0 0 -1 0 0 0 0];

internalField   uniform 10000;

boundaryField
{
    inlet
    {
        type            turbulentMixingLengthFrequencyInlet;     
	mixingLength	0.001;
        value           uniform 1000;
    }

    outlet
    {
        type            inletOutlet;
        inletValue      $internalField;
        value           $internalField;
    }

    front
    {
        type            empty;
    }

    back
    {
        type            empty;
    }

     blade
    {
        type            omegaWallFunction;
        value           $internalField;
    }

 Upper_periodicity
    {
        type            cyclic;
    }

    Lower_periodicity
    {
        type            cyclic;
    }


}


// ************************************************************************* //
