/*--------------------------------*- C++ -*----------------------------------*\
| =========                 |                                                 |
| \\      /  F ield         | OpenFOAM Extend Project: Open Source CFD        |
|  \\    /   O peration     | Version:  1.6-ext                               |
|   \\  /    A nd           | Web:      www.extend-project.de                 |
|    \\/     M anipulation  |                                                 |
\*---------------------------------------------------------------------------*/
FoamFile
{
    version     2.0;
    format      ascii;
    class       volScalarField;
    location    "0";
    object      T;
}
// * * * * * * * * * * * * * * * * * * * * * * * * * * * * * * * * * * * * * //

dimensions      [0 0 0 1 0 0 0];

internalField   uniform 300;

boundaryField
{
    INLE1
    {
        type            characteristicPressureInletOutletTemperature;
        p               1e5;
        U               (486.8 0 0);
        T               300;
        value           uniform 300;
    }

    PRES2
    {
        type            characteristicPressureInletOutletTemperature;
        p               1e5;
        U               (300 0 0);
        T               300;
        value           uniform 300;
    }

    WALL3
    {
        type            zeroGradient;
    }

    WALL4
    {
        type            zeroGradient;
    }

    defaultFaces
    {
        type            empty;
    }
}

// ************************************************************************* //
